M0019
 OpenBabel12031516023D

 35 36  0  0  1  0  0  0  0  0999 V2000
    0.3511    0.7734    0.6864 O   0  0  0  0  0  0  0  0  0  0  0  0
   -1.3737    4.0500   -0.0545 O   0  0  0  0  0  0  0  0  0  0  0  0
   -0.4159   -0.0295   -0.1449 C   0  0  1  0  0  0  0  0  0  0  0  0
    1.0191    0.5614   -0.5385 C   0  0  2  0  0  0  0  0  0  0  0  0
   -0.3918   -1.5690    0.0973 C   0  0  0  0  0  0  0  0  0  0  0  0
    2.3470   -0.0977   -0.0716 C   0  0  0  0  0  0  0  0  0  0  0  0
    0.9059   -1.9887    0.8582 C   0  0  0  0  0  0  0  0  0  0  0  0
    2.2058   -1.6339    0.0883 C   0  0  0  0  0  0  0  0  0  0  0  0
    1.1358    1.9459   -1.2251 C   0  0  0  0  0  0  0  0  0  0  0  0
   -1.6553    0.6435   -0.6986 C   0  0  0  0  0  0  0  0  0  0  0  0
   -0.4771   -2.3199   -1.2675 C   0  0  0  0  0  0  0  0  0  0  0  0
   -1.6246   -1.9635    0.9661 C   0  0  0  0  0  0  0  0  0  0  0  0
   -2.0936    1.8873   -0.4556 C   0  0  0  0  0  0  0  0  0  0  0  0
   -1.5321    2.9372    0.4200 C   0  0  0  0  0  0  0  0  0  0  0  0
   -1.1865    2.7183    1.8687 C   0  0  0  0  0  0  0  0  0  0  0  0
    3.1338    0.1007   -0.8171 H   0  0  0  0  0  0  0  0  0  0  0  0
    2.6711    0.3490    0.8841 H   0  0  0  0  0  0  0  0  0  0  0  0
    0.8900   -3.0800    1.0203 H   0  0  0  0  0  0  0  0  0  0  0  0
    0.9366   -1.5054    1.8479 H   0  0  0  0  0  0  0  0  0  0  0  0
    2.2099   -2.1132   -0.9030 H   0  0  0  0  0  0  0  0  0  0  0  0
    3.0850   -2.0234    0.6326 H   0  0  0  0  0  0  0  0  0  0  0  0
    0.2204    2.2140   -1.7700 H   0  0  0  0  0  0  0  0  0  0  0  0
    1.3549    2.7224   -0.4762 H   0  0  0  0  0  0  0  0  0  0  0  0
    1.9595    1.9141   -1.9536 H   0  0  0  0  0  0  0  0  0  0  0  0
   -2.2387    0.0368   -1.3879 H   0  0  0  0  0  0  0  0  0  0  0  0
    0.1989   -1.8839   -2.0171 H   0  0  0  0  0  0  0  0  0  0  0  0
   -1.4896   -2.2869   -1.6945 H   0  0  0  0  0  0  0  0  0  0  0  0
   -0.2107   -3.3797   -1.1354 H   0  0  0  0  0  0  0  0  0  0  0  0
   -2.5688   -1.7285    0.4530 H   0  0  0  0  0  0  0  0  0  0  0  0
   -1.6120   -1.4200    1.9229 H   0  0  0  0  0  0  0  0  0  0  0  0
   -1.6155   -3.0445    1.1793 H   0  0  0  0  0  0  0  0  0  0  0  0
   -2.9931    2.2062   -0.9850 H   0  0  0  0  0  0  0  0  0  0  0  0
   -0.1048    2.8478    2.0364 H   0  0  0  0  0  0  0  0  0  0  0  0
   -1.4897    1.7137    2.1995 H   0  0  0  0  0  0  0  0  0  0  0  0
   -1.7224    3.4654    2.4716 H   0  0  0  0  0  0  0  0  0  0  0  0
  3  1  1  0  0  0  0
  3  4  1  0  0  0  0
  3  5  1  0  0  0  0
  3 10  1  6  0  0  0
  4  1  1  0  0  0  0
  4  6  1  0  0  0  0
  4  9  1  6  0  0  0
  5  7  1  0  0  0  0
  5 11  1  0  0  0  0
  5 12  1  0  0  0  0
  6  8  1  0  0  0  0
  6 16  1  0  0  0  0
  6 17  1  0  0  0  0
  7  8  1  0  0  0  0
  7 18  1  0  0  0  0
  7 19  1  0  0  0  0
  8 20  1  0  0  0  0
  8 21  1  0  0  0  0
  9 22  1  0  0  0  0
  9 23  1  0  0  0  0
  9 24  1  0  0  0  0
 10 25  1  0  0  0  0
 11 26  1  0  0  0  0
 11 27  1  0  0  0  0
 11 28  1  0  0  0  0
 12 29  1  0  0  0  0
 12 30  1  0  0  0  0
 12 31  1  0  0  0  0
 13 10  2  0  0  0  0
 13 14  1  0  0  0  0
 13 32  1  0  0  0  0
 14  2  2  0  0  0  0
 14 15  1  0  0  0  0
 15 33  1  0  0  0  0
 15 34  1  0  0  0  0
 15 35  1  0  0  0  0
M  END
$$$$
